.SUBCKT clk 1

vclk 0 1 pulse(0 -5 0 0 0 1m 2m)

.ENDS

