


.model 2n3819	NJF(Beta=1.304m Rd=1 Rs=1 Lambda=2.25m Vto=-3 Is=33.57f	Cgd=1.6p Pb=1 Fc=.5 Cgs=2.414p Kf=9.882E-18 Af=1)

.model mpf102 NJF (Beta=1.04m Rd=1 Rs=1 Lambda=2m Vto=-3.41 Is=33.57f Cgd=1.6p Pb=1 Fc=.5 Cgs=2.414p Kf=11.73E-18 Af=1)

.model 2n5457	NJF(Beta=1.125m Rd=1 Rs=1 Lambda=2.3m Vto=-1.372 Is=181.3f Cgd=4p Pb=.5 Fc=.5 Cgs=4.627p Kf=10.45E-18 Af=1)

.model 2n5458	NJF(Beta=488.9u Rd=1 Rs=1 Lambda=3.167m Vto=-2.882 Is=181.3f Cgd=4p Pb=.5 Fc=.5 Cgs=4.627p Kf=4.284E-18	Af=1)
