


.MODEL 2N7002   NMOS(LEVEL=3   RS=0.0405          NSUB=1.0E15
+               DELTA=0.1      KAPPA=0.0506    TPG=1              CGDO=6.1716E-10
+               RD=1.22        VTO=2.00        VMAX=1.0E7         ETA=0.0223089
+               NFS=6.6E10     TOX=1.0E-7      LD=1.698E-9        UO=862.425
+               XJ=6.4666E-7   THETA=1.0E-5    CGSO=9.10E-9       L=2.5E-6
+               W=0.5E-2)


.model 2n3819	NJF(Beta=1.304m Rd=1 Rs=1 Lambda=2.25m Vto=-3 Is=33.57f	Cgd=1.6p Pb=1 Fc=.5 Cgs=2.414p Kf=9.882E-18 Af=1)

.model mpf102 NJF (Beta=1.04m Betatce=-.5 Rd=1 Rs=1 Lambda=2m Vto=-3.41
+		Vtotc=-2.5m Is=33.57f Isr=322.4f N=1 Nr=2 Xti=3 Alpha=311.7
+		Vk=243.6 Cgd=1.6p M=.3622 Pb=1 Fc=.5 Cgs=2.414p Kf=11.73E-18
+		Af=1)


**************************************
*      Model Generated by MODPEX     *
*Copyright(c) Symmetry Design Systems*
*         All Rights Reserved        *
*    UNPUBLISHED LICENSED SOFTWARE   *
*   Contains Proprietary Information *
*      Which is The Property of      *
*     SYMMETRY OR ITS LICENSORS      *
*Commercial Use or Resale Restricted *
*   by Symmetry License Agreement    *
**************************************
* Model generated on Apr  9, 98
* MODEL FORMAT: PSpice
.MODEL Dmmbd352lt1 d
+IS=1.65959e-08 RS=3.94417 N=1.45612 EG=0.735199
+XTI=0.530968 BV=1000 IBV=0.0001 CJO=9.20067e-13
+VJ=1.5 M=0.2 FC=0.5 TT=1e-09
+KF=0 AF=1

