
.MODEL 1PS66SB17 D 
+ IS = 1.419E-09 
+ N = 1.022 
+ BV = 6 
+ IBV = 2.45E-06 
+ RS = 5.112 
+ CJO = 7.662E-13
+ VJ = 0.1681 
+ M = 0.1995
+ FC = 0.5 
+ EG = 0.69 
+ XTI = 2 

.MODEL 1PS66SB82 D 
+ IS = 1.042E-8 
+ N = 1.029 
+ BV = 17 
+ IBV = 0.001 
+ RS = 5.567 
+ CJO = 9.779E-13 
+ VJ = 0.2925 
+ M = 0.194 
+ FC = 0.5 
+ EG = 0.69 
+ XTI = 2 