.MODEL BB112 D (IS=75.8P RS=1.4 N=1.72 BV=15.9 IBV=50N
+ CJO=692P VJ=.845 M=.576 TT=360N)
